[General]
network = Network
sim-time-limit=10s
repeat=40
cmdenv-output-file="results/out-${runnumber}.log"
#eventlog-file="results/messages-${runnumber}.log"
#record-eventlog=true

**.numNodes = 10

# playground
**.constraintAreaMinX = 0m
**.constraintAreaMinY = 0m
**.constraintAreaMinZ = 0m
**.constraintAreaMaxX = 600m
**.constraintAreaMaxY = 400m
**.constraintAreaMaxZ = 0m


# mobility
**.nodes[*].mobility.typename = "StationaryMobility"
**.nodes[*].mobility.initFromDisplayString = false

# ARP
**.arp.typename = "GlobalArp"


**.slotDuration= 10ms
**.frameLength = 10
**.mac.ackTimeout= 9.5ms
**.maxTransmissionDuration = 1s
**.monitorSchedule = true

#**.rlc.typename = "DummyRlc"

# ping app (host[0] pinged by others)
**.numApps = 1
**.nodes[0].app[0].typename = "UdpEchoApp"
**.nodes[*].app[0].typename = "UdpBasicApp"
**.nodes[*].app[0].destAddresses = "nodes[0]"
**.nodes[*].app[0].startTime = 0s
**.nodes[*].app[0].stopTime = 9s
**.nodes[*].app[0].sendInterval = 1s
**.nodes[*].app[0].messageLength = 1000B
**.nodes[*].app[0].destPort = 3000
**.nodes[0].app[0].localPort = 3000


# nic settings
**.wlan[*].typename = "TdmaInterface"
**.wlan[*].bitrate = 0.25Mbps
**.wlan[*].mac.headerLength = 23B
**.wlan[*].radio.transmitter.headerLength = 96b
**.wlan[*].radio.transmitter.interferenceRange = 0m
**.wlan[*].radio.transmitter.detectionRange = 1000000000000m
**.wlan[*].radio.receiver.ignoreInterference = true
**.wlan[*].radio.transmitter.communicationRange = 10000000000m
